pst_legacy/pstdat/dK2area_sys.m
% 2 Area Test System by P. Kundur

bus = [...
        1   1.0300      26.8490  7.0000      1.7919         0.00        0.00    0.00    0.00        1       5.0     -5.0        20.0        1.1     0.9;
        2   1.0100      17.0998  7.0000      2.2026         0.00        0.00    0.00    0.00        2       5.0     -2.0        20.0        1.1     0.9;
        3   1.0300       0.0000  7.1850      1.6898         0.00        0.00    0.00    0.00        2       9.0     -9.0        20.0        1.1     0.9;
        4   1.0100     -10.1588  7.0000      1.8521         0.00        0.00    0.00    0.00        2       5.0     -2.0        20.0        1.1     0.9;
        5   1.0074      20.3799  0.0000      0.0000         0.00        0.00    0.00    0.00        3       0.0      0.0       230.0        1.5     0.5;
        6   0.9804      10.3201  0.0000      0.0000         0.00        0.00    0.00    0.00        3       0.0      0.0       230.0        1.5     0.5;
        7   0.9652       1.9560  0.0000      2.0000         9.67        1.00    0.00    0.00        3       0.0      0.0       230.0        1.5     0.5;
        8   0.9536     -11.7915  0.0000      0.0000         0.00        0.00    0.00    0.00        2       0.0      0.0       230.0        1.5     0.5;
        9   0.9763     -25.2580  0.0000      3.5000   1.00*17.67   1.00*1.00    0.00    0.00        3       0.0      0.0       230.0        1.5     0.5;
       10   0.9862     -16.8988  0.0000      0.0000         0.00        0.00    0.00    0.00        3       0.0      0.0       230.0        1.5     0.5;
       11   1.0093      -6.6276  0.0000      0.0000         0.00        0.00    0.00    0.00        3       0.0      0.0       230.0        1.5     0.5;
       12   1.0100      -6.6276  0.0000      0.0000         0.00        0.00    0.00    0.00        2       0.0      0.0       230.0        1.5     0.5;
   ];
   
line = [...
        1       5       0.00        0.0167      0.00        0       0       0       0       0;
        5       6     0.0025         0.025   0.04375        0       0       0       0       0;
        2       6       0.00        0.0167      0.00        0       0       0       0       0;
        6       7      0.001          0.01    0.0175        0       0       0       0       0;
        7       8      0.011          0.11    0.1925        0       0       0       0       0;
        7       8      0.011          0.11    0.1925        0       0       0       0       0;
        9      12      0.011          0.11    0.1925        0       0       0       0       0;
        9      12      0.011          0.11    0.1925        0       0       0       0       0;
        %8       9      0.011          0.11    0.1925        0       0       0       0       0;
        %8       9      0.011          0.11    0.1925        0       0       0       0       0;
        9      10      0.001          0.01    0.0175        0       0       0       0       0;
        4      10       0.00        0.0167      0.00        0       0       0       0       0;
       10      11     0.0025         0.025   0.04375        0       0       0       0       0;
        3      11       0.00        0.0167      0.00        0       0       0       0       0;
        8      12       0.00        -0.088      0.00        0       0       0       0       0;
        8      12       0.00        -0.088      0.00        0       0       0       0       0; 
    ];
    
mac_con = [ ...
        1   1 900 0.200  0.0025  1.8  0.30  0.25 8.00  0.03 1.7  0.55  0.25 0.4   0.05   6.5  2  0  3   0.0377  0.1821;
        2   2 900 0.200  0.0025  1.8  0.30  0.25 8.00  0.03 1.7  0.55  0.25 0.4   0.05   6.5  2  0  3   0.0377  0.1821;
        3   3 900 0.200  0.0025  1.8  0.30  0.25 8.00  0.03 1.7  0.55  0.25 0.4   0.05 6.175  2  0  3   0.0377  0.1821;
        4   4 900 0.200  0.0025  1.8  0.30  0.25 8.00  0.03 1.7  0.55  0.25 0.4   0.05 6.175  2  0  3   0.0377  0.1821;
    ];
    
%exc_con = [...
%        7   1   0.0 0.0 0.0 20  0.01    0.0 0.0 6.43    -6.0    0.0 999 -999 ...
%        0   0   0   0   0   0   0   0   0   0   0   0   0   0;
%        7   2   0.0 0.0 0.0 20  0.01    0.0 0.0 6.43    -6.0    0.0 999 -999 ...
%        0   0   0   0   0   0   0   0   0   0   0   0   0   0;
%        7   3   0.0 0.0 0.0 20  0.01    0.0 0.0 6.43    -6.0    0.0 999 -999 ...
%        0   0   0   0   0   0   0   0   0   0   0   0   0   0;
%        7   4   0.0 0.0 0.0 20  0.01    0.0 0.0 6.43    -6.0    0.0 999 -999 ...
%        0   0   0   0   0   0   0   0   0   0   0   0   0   0;
%];

exc_con = [...
1 1 0.01 20.0   0.06  0     0    1.0   -0.9...
    0.0  0.46   3.1   0.33  2.3  0.1   0.1   2.0    0    0   0;     %Value of Se changed from 1.0 to 2.0
1 2 0.01 20.0   0.06  0     0    1.0   -0.9...
    0.0  0.46   3.1   0.33  2.3  0.1   0.1   2.0    0    0   0;
1 3 0.01 20.0   0.06  0     0    1.0   -0.9...
    0.0  0.46   3.1   0.33  2.3  0.1   0.1   2.0    0    0   0;
1 4 0.01 20.0   0.06  0     0    1.0   -0.9...
    0.0  0.46   3.1   0.33  2.3  0.1   0.1   2.0    0    0   0];


tg_con = [...
1  1  1  25.0  1.5  0.1  0.5 0.0 1.25 5.0; % governor power limit changed from 1.0 to 1.5
1  2  1  25.0  1.5  0.1  0.5 0.0 1.25 5.0;
%1  3  1  25.0  1.5  0.1  0.5 0.0 1.25 5.0;
1  4  1  25.0  1.5  0.1  0.5 0.0 1.25 5.0
];

load_con = [...     
 8 0  0   0  0;
12 0  0   0  0;
];

tcsc_con = [ 1 8 12 1 .5 3 -3;
             2 8 12 1 .5 3 -3;   
         ]; %+ 10% compensation - 10% compensation
tcsc_dc=[];
%load control6;
tcsc_dc{1}=0.2.*ldlg_stsp(1,0.02,0.5).*ldlg_stsp(1,0.5,0.1).*lag_stsp(1,0.1);%control state space object
%tcsc_dc{1}=100.*sc3.*scr;%control state space object
tcsc_dc{2}=1;%tcsc number
tcsc_dc{3}=8;%bus number
tcsc_dc{4}=3;% control max output limit
tcsc_dc{5}=-3;% control min output limit
tcsc_dc{6}=3;% number of control states


sw_con = [...
0    0    0    0    0    0    0.01;%sets intitial time step
0.1  9   12    0    0    0    0.005; %thee phase fault
0.15 0    0    0    0    0    0.005556; %clear fault at bus 3
0.20 0    0    0    0    0    0.005556; %clear remote end
0.50 0    0    0    0    0    0.005; % increase time step 
1.0  0    0    0    0    0    0.01; % increase time step
15.0 0    0    0    0    0    0;
]; % end simulation

lmon_con = [2 3 4 5]';